REMARK ENERGY -69.48
  -OEChem-10041812273D

 90 92  0     1  0  0  0  0  0999 V2000
   10.7800   39.0540  -12.1290 C   0  0  0  0  0  0  0  0  0  0  0  0
   10.9440   39.4070  -10.7890 C   0  0  0  0  0  0  0  0  0  0  0  0
   11.4870   39.7340  -13.1200 C   0  0  0  0  0  0  0  0  0  0  0  0
   12.5230   41.1180  -11.4320 C   0  0  0  0  0  0  0  0  0  0  0  0
   11.8150   40.4380  -10.4400 C   0  0  0  0  0  0  0  0  0  0  0  0
   12.3580   40.7660  -12.7710 C   0  0  0  0  0  0  0  0  0  0  0  0
   19.2790   43.6150   -6.7940 C   0  0  0  0  0  0  0  0  0  0  0  0
   16.9320   42.3320   -8.6460 C   0  0  0  0  0  0  0  0  0  0  0  0
   20.7930   43.5270   -6.8180 C   0  0  0  0  0  0  0  0  0  0  0  0
   22.2450   39.6180   -6.1570 C   0  0  0  0  0  0  0  0  0  0  0  0
   22.0140   40.2490   -4.7810 C   0  0  0  0  0  0  0  0  0  0  0  0
   21.5440   38.2690   -6.3300 C   0  0  0  0  0  0  0  0  0  0  0  0
   22.8460   41.5200   -4.5490 C   0  0  0  0  0  0  0  0  0  0  0  0
   20.0110   38.2950   -6.2610 C   0  0  0  0  0  0  0  0  0  0  0  0
   10.7850   41.2840   -8.2280 C   0  0  0  0  0  0  0  0  0  0  0  0
   11.8480   42.2660   -8.6150 C   0  0  0  0  0  0  0  0  0  0  0  0
   17.7530   39.0530   -7.0540 C   0  0  0  0  0  0  0  0  0  0  0  0
   22.5890   42.6240   -5.5720 C   0  0  0  0  0  0  0  0  0  0  0  0
   17.1820   43.7390   -8.0960 C   0  0  2  0  0  0  0  0  0  0  0  0
   19.2790   39.2300   -7.2550 C   0  0  2  0  0  0  0  0  0  0  0  0
   16.8480   39.9320   -7.9370 C   0  0  1  0  0  0  0  0  0  0  0  0
   11.9890   40.8120   -9.0160 C   0  0  0  0  0  0  0  0  0  0  0  0
   16.4730   44.8050   -8.9260 C   0  0  0  0  0  0  0  0  0  0  0  0
   19.6930   38.9560   -8.7040 C   0  0  0  0  0  0  0  0  0  0  0  0
   12.1480   42.1820  -14.8440 C   0  0  0  0  0  0  0  0  0  0  0  0
   14.0300   40.5220  -14.6410 C   0  0  0  0  0  0  0  0  0  0  0  0
   14.0610   42.6290  -13.3220 C   0  0  0  0  0  0  0  0  0  0  0  0
   19.3760   44.2270   -9.2480 C   0  0  0  0  0  0  0  0  0  0  0  0
   14.4070   40.4050   -8.5390 C   0  0  0  0  0  0  0  0  0  0  0  0
   15.3760   39.5930   -7.6900 C   0  0  1  0  0  0  0  0  0  0  0  0
   13.1150   41.4930  -13.8310 C   0  0  0  0  0  0  0  0  0  0  0  0
   17.0670   41.3500   -7.6740 N   0  0  0  0  0  0  0  0  0  0  0  0
   18.6480   43.9040   -8.0160 N   0  0  0  0  0  0  0  0  0  0  0  0
   13.0010   40.0200   -8.2640 N   0  3  0  0  0  0  0  0  0  0  0  0
   18.6640   43.4020   -5.7440 O   0  0  0  0  0  0  0  0  0  0  0  0
   16.6870   42.1180   -9.8310 O   0  0  0  0  0  0  0  0  0  0  0  0
   21.1920   42.8900   -5.6130 O   0  0  0  0  0  0  0  0  0  0  0  0
   15.1640   38.2070   -7.9350 O   0  0  0  0  0  0  0  0  0  0  0  0
   10.1010   38.2510  -12.4000 H   0  0  0  0  0  0  0  0  0  0  0  0
   10.3880   38.8700  -10.0230 H   0  0  0  0  0  0  0  0  0  0  0  0
   11.3540   39.4530  -14.1600 H   0  0  0  0  0  0  0  0  0  0  0  0
   13.2030   41.9230  -11.1610 H   0  0  0  0  0  0  0  0  0  0  0  0
   21.1100   42.9130   -7.6670 H   0  0  0  0  0  0  0  0  0  0  0  0
   21.2210   44.5330   -6.8710 H   0  0  0  0  0  0  0  0  0  0  0  0
   21.9220   40.3000   -6.9500 H   0  0  0  0  0  0  0  0  0  0  0  0
   23.3210   39.4640   -6.2990 H   0  0  0  0  0  0  0  0  0  0  0  0
   20.9520   40.4810   -4.6500 H   0  0  0  0  0  0  0  0  0  0  0  0
   22.2740   39.5230   -4.0010 H   0  0  0  0  0  0  0  0  0  0  0  0
   21.8560   37.8310   -7.2860 H   0  0  0  0  0  0  0  0  0  0  0  0
   21.9090   37.5800   -5.5580 H   0  0  0  0  0  0  0  0  0  0  0  0
   22.5980   41.8990   -3.5510 H   0  0  0  0  0  0  0  0  0  0  0  0
   23.9130   41.2710   -4.5440 H   0  0  0  0  0  0  0  0  0  0  0  0
   19.6590   37.2680   -6.4190 H   0  0  0  0  0  0  0  0  0  0  0  0
   19.7090   38.5590   -5.2400 H   0  0  0  0  0  0  0  0  0  0  0  0
   10.7090   41.0110   -7.1810 H   0  0  0  0  0  0  0  0  0  0  0  0
    9.8270   41.3550   -8.7310 H   0  0  0  0  0  0  0  0  0  0  0  0
   11.6010   42.9960   -9.3780 H   0  0  0  0  0  0  0  0  0  0  0  0
   12.4850   42.6540   -7.8300 H   0  0  0  0  0  0  0  0  0  0  0  0
   17.4960   38.0000   -7.2330 H   0  0  0  0  0  0  0  0  0  0  0  0
   17.5180   39.2530   -6.0000 H   0  0  0  0  0  0  0  0  0  0  0  0
   23.1150   43.5390   -5.2800 H   0  0  0  0  0  0  0  0  0  0  0  0
   22.9640   42.3190   -6.5560 H   0  0  0  0  0  0  0  0  0  0  0  0
   16.7600   43.7840   -7.0850 H   0  0  0  0  0  0  0  0  0  0  0  0
   19.5420   40.2670   -7.0140 H   0  0  0  0  0  0  0  0  0  0  0  0
   17.0530   39.7390   -8.9950 H   0  0  0  0  0  0  0  0  0  0  0  0
   16.8600   44.7990   -9.9450 H   0  0  0  0  0  0  0  0  0  0  0  0
   16.6400   45.7870   -8.4880 H   0  0  0  0  0  0  0  0  0  0  0  0
   15.4030   44.6030   -8.9520 H   0  0  0  0  0  0  0  0  0  0  0  0
   19.4430   37.9320   -8.9680 H   0  0  0  0  0  0  0  0  0  0  0  0
   20.7650   39.1040   -8.8110 H   0  0  0  0  0  0  0  0  0  0  0  0
   19.1680   39.6380   -9.3690 H   0  0  0  0  0  0  0  0  0  0  0  0
   12.6790   42.7240  -15.6350 H   0  0  0  0  0  0  0  0  0  0  0  0
   11.4980   41.4530  -15.3380 H   0  0  0  0  0  0  0  0  0  0  0  0
   11.5020   42.9000  -14.3240 H   0  0  0  0  0  0  0  0  0  0  0  0
   14.5870   41.0530  -15.4210 H   0  0  0  0  0  0  0  0  0  0  0  0
   14.7680   40.0120  -14.0110 H   0  0  0  0  0  0  0  0  0  0  0  0
   13.4240   39.7540  -15.1340 H   0  0  0  0  0  0  0  0  0  0  0  0
   14.5950   43.1330  -14.1370 H   0  0  0  0  0  0  0  0  0  0  0  0
   13.4950   43.3990  -12.7840 H   0  0  0  0  0  0  0  0  0  0  0  0
   14.8220   42.2270  -12.6410 H   0  0  0  0  0  0  0  0  0  0  0  0
   19.5830   43.3130   -9.8110 H   0  0  0  0  0  0  0  0  0  0  0  0
   20.3230   44.7180   -9.0110 H   0  0  0  0  0  0  0  0  0  0  0  0
   18.7790   44.8970   -9.8730 H   0  0  0  0  0  0  0  0  0  0  0  0
   14.5730   40.2520   -9.6100 H   0  0  0  0  0  0  0  0  0  0  0  0
   14.4790   41.4710   -8.3020 H   0  0  0  0  0  0  0  0  0  0  0  0
   15.1480   39.7770   -6.6370 H   0  0  0  0  0  0  0  0  0  0  0  0
   17.3310   41.6320   -6.7340 H   0  0  0  0  0  0  0  0  0  0  0  0
   12.8140   40.1110   -7.2550 H   0  0  0  0  0  0  0  0  0  0  0  0
   12.8720   39.0210   -8.4820 H   0  0  0  0  0  0  0  0  0  0  0  0
   15.7390   37.7260   -7.3180 H   0  0  0  0  0  0  0  0  0  0  0  0
  1 39  1  0  0  0  0
  1  3  2  0  0  0  0
  1  2  1  0  0  0  0
 10 12  1  0  0  0  0
 10 45  1  0  0  0  0
 10 46  1  0  0  0  0
 10 11  1  0  0  0  0
 11 13  1  0  0  0  0
 11 47  1  0  0  0  0
 11 48  1  0  0  0  0
 12 14  1  0  0  0  0
 12 49  1  0  0  0  0
 12 50  1  0  0  0  0
 13 51  1  0  0  0  0
 13 52  1  0  0  0  0
 13 18  1  0  0  0  0
 14 53  1  0  0  0  0
 14 20  1  0  0  0  0
 14 54  1  0  0  0  0
 15 22  1  0  0  0  0
 15 16  1  0  0  0  0
 15 55  1  0  0  0  0
 15 56  1  0  0  0  0
 16 57  1  0  0  0  0
 16 58  1  0  0  0  0
 16 22  1  0  0  0  0
 17 59  1  0  0  0  0
 17 21  1  0  0  0  0
 17 60  1  0  0  0  0
 17 20  1  0  0  0  0
 18 61  1  0  0  0  0
 18 62  1  0  0  0  0
 18 37  1  0  0  0  0
  8 19  1  0  0  0  0
 19 33  1  0  0  0  0
 19 23  1  0  0  0  0
 19 63  1  0  0  0  0
  2 40  1  0  0  0  0
  2  5  2  0  0  0  0
 20 24  1  0  0  0  0
 20 64  1  0  0  0  0
 21 65  1  0  0  0  0
 21 30  1  0  0  0  0
 21 32  1  0  0  0  0
 22 34  1  0  0  0  0
  5 22  1  0  0  0  0
 23 66  1  0  0  0  0
 23 67  1  0  0  0  0
 23 68  1  0  0  0  0
 24 69  1  0  0  0  0
 24 70  1  0  0  0  0
 24 71  1  0  0  0  0
 25 72  1  0  0  0  0
 25 73  1  0  0  0  0
 25 74  1  0  0  0  0
 25 31  1  0  0  0  0
 26 75  1  0  0  0  0
 26 76  1  0  0  0  0
 26 77  1  0  0  0  0
 26 31  1  0  0  0  0
 27 78  1  0  0  0  0
 27 79  1  0  0  0  0
 27 80  1  0  0  0  0
 27 31  1  0  0  0  0
 28 33  1  0  0  0  0
 28 81  1  0  0  0  0
 28 82  1  0  0  0  0
 28 83  1  0  0  0  0
 29 34  1  0  0  0  0
 29 30  1  0  0  0  0
 29 84  1  0  0  0  0
 29 85  1  0  0  0  0
  3  6  1  0  0  0  0
  3 41  1  0  0  0  0
 30 38  1  0  0  0  0
 30 86  1  0  0  0  0
  6 31  1  0  0  0  0
  4  6  2  0  0  0  0
  4  5  1  0  0  0  0
  4 42  1  0  0  0  0
  7 33  1  0  0  0  0
  7 35  2  0  0  0  0
  7  9  1  0  0  0  0
  8 32  1  0  0  0  0
  8 36  2  0  0  0  0
  9 43  1  0  0  0  0
  9 44  1  0  0  0  0
  9 37  1  0  0  0  0
 32 87  1  0  0  0  0
 34 88  1  0  0  0  0
 34 89  1  0  0  0  0
 38 90  1  0  0  0  0
M  CHG  1  34   1
M  END
