REMARK ENERGY -30.85
  -OEChem-10041812273D

 77 80  0     1  0  0  0  0  0999 V2000
   21.1370   37.5910   -8.2130 C   0  0  0  0  0  0  0  0  0  0  0  0
   19.7680   37.6000   -7.9560 C   0  0  0  0  0  0  0  0  0  0  0  0
   21.9780   38.4850   -7.5510 C   0  0  0  0  0  0  0  0  0  0  0  0
   17.8250   44.3060   -8.7910 C   0  0  0  0  0  0  0  0  0  0  0  0
   19.0980   43.2920   -6.9940 C   0  0  0  0  0  0  0  0  0  0  0  0
   20.0890   39.3770   -6.3460 C   0  0  0  0  0  0  0  0  0  0  0  0
   19.1380   45.6740   -7.2910 C   0  0  0  0  0  0  0  0  0  0  0  0
   18.2230   43.1700   -8.0850 C   0  0  0  0  0  0  0  0  0  0  0  0
   19.2310   38.4970   -7.0250 C   0  0  0  0  0  0  0  0  0  0  0  0
   18.2800   45.5580   -8.3880 C   0  0  0  0  0  0  0  0  0  0  0  0
   19.5700   44.5460   -6.5730 C   0  0  0  0  0  0  0  0  0  0  0  0
   21.4610   39.3750   -6.6060 C   0  0  0  0  0  0  0  0  0  0  0  0
   17.7330   41.8450   -8.5370 C   0  0  0  0  0  0  0  0  0  0  0  0
   17.7370   38.5730   -6.8070 C   0  0  0  0  0  0  0  0  0  0  0  0
   22.2840   43.1510   -5.2980 C   0  0  0  0  0  0  0  0  0  0  0  0
   22.9020   41.9890   -4.5080 C   0  0  0  0  0  0  0  0  0  0  0  0
   20.9810   43.6630   -4.6790 C   0  0  0  0  0  0  0  0  0  0  0  0
   12.6600   41.5050   -9.0880 C   0  0  0  0  0  0  0  0  0  0  0  0
   22.1700   40.6620   -4.7200 C   0  0  0  0  0  0  0  0  0  0  0  0
   14.7870   39.8340  -10.0390 C   0  0  0  0  0  0  0  0  0  0  0  0
   17.0530   39.5520   -7.7790 C   0  0  1  0  0  0  0  0  0  0  0  0
   14.8370   40.4020   -8.6250 C   0  0  2  0  0  0  0  0  0  0  0  0
   12.7010   40.9290  -10.5000 C   0  0  2  0  0  0  0  0  0  0  0  0
   16.4400   48.6560   -9.0290 C   0  0  0  0  0  0  0  0  0  0  0  0
    9.6200   38.9070  -10.5310 C   0  0  0  0  0  0  0  0  0  0  0  0
   17.8510   46.7800   -9.1300 C   0  0  0  0  0  0  0  0  0  0  0  0
   11.8310   39.6860  -10.6820 C   0  0  0  0  0  0  0  0  0  0  0  0
   15.5340   39.4710   -7.6480 C   0  0  1  0  0  0  0  0  0  0  0  0
   20.4160   44.7280   -5.4900 N   0  0  0  0  0  0  0  0  0  0  0  0
   17.4920   40.9260   -7.5280 N   0  0  0  0  0  0  0  0  0  0  0  0
   13.4250   40.6130   -8.1650 N   0  3  0  0  0  0  0  0  0  0  0  0
   17.5640   41.6440   -9.7360 O   0  0  0  0  0  0  0  0  0  0  0  0
   22.3550   40.2650   -6.0800 O   0  0  0  0  0  0  0  0  0  0  0  0
   14.0530   40.6930  -10.9140 O   0  0  0  0  0  0  0  0  0  0  0  0
   15.1200   38.1330   -7.8920 O   0  0  0  0  0  0  0  0  0  0  0  0
   16.8800   47.4810   -8.3630 O   0  0  0  0  0  0  0  0  0  0  0  0
   10.4880   40.0240  -10.3820 O   0  0  0  0  0  0  0  0  0  0  0  0
   21.5510   36.8840   -8.9240 H   0  0  0  0  0  0  0  0  0  0  0  0
   19.1230   36.8980   -8.4800 H   0  0  0  0  0  0  0  0  0  0  0  0
   23.0400   38.4780   -7.7940 H   0  0  0  0  0  0  0  0  0  0  0  0
   17.1530   44.2260   -9.6410 H   0  0  0  0  0  0  0  0  0  0  0  0
   19.4260   42.3930   -6.4760 H   0  0  0  0  0  0  0  0  0  0  0  0
   19.6870   40.0450   -5.5900 H   0  0  0  0  0  0  0  0  0  0  0  0
   19.4820   46.6640   -6.9940 H   0  0  0  0  0  0  0  0  0  0  0  0
   17.3190   37.5780   -6.9390 H   0  0  0  0  0  0  0  0  0  0  0  0
   17.5360   38.8670   -5.7810 H   0  0  0  0  0  0  0  0  0  0  0  0
   23.0110   43.9690   -5.3260 H   0  0  0  0  0  0  0  0  0  0  0  0
   22.1190   42.8520   -6.3360 H   0  0  0  0  0  0  0  0  0  0  0  0
   23.9340   41.8740   -4.8460 H   0  0  0  0  0  0  0  0  0  0  0  0
   22.9240   42.2280   -3.4440 H   0  0  0  0  0  0  0  0  0  0  0  0
   20.2550   42.8600   -4.5140 H   0  0  0  0  0  0  0  0  0  0  0  0
   21.2020   44.0790   -3.6870 H   0  0  0  0  0  0  0  0  0  0  0  0
   13.1250   42.4980   -9.0340 H   0  0  0  0  0  0  0  0  0  0  0  0
   11.6380   41.5720   -8.6930 H   0  0  0  0  0  0  0  0  0  0  0  0
   22.6050   39.9050   -4.0600 H   0  0  0  0  0  0  0  0  0  0  0  0
   21.1090   40.7830   -4.4770 H   0  0  0  0  0  0  0  0  0  0  0  0
   15.7950   39.6850  -10.4430 H   0  0  0  0  0  0  0  0  0  0  0  0
   14.2900   38.8590  -10.0390 H   0  0  0  0  0  0  0  0  0  0  0  0
   17.3270   39.2790   -8.7770 H   0  0  0  0  0  0  0  0  0  0  0  0
   15.3190   41.3720   -8.6140 H   0  0  0  0  0  0  0  0  0  0  0  0
   12.2830   41.7240  -11.2130 H   0  0  0  0  0  0  0  0  0  0  0  0
   15.6970   49.1680   -8.4130 H   0  0  0  0  0  0  0  0  0  0  0  0
   16.0050   48.3860   -9.9950 H   0  0  0  0  0  0  0  0  0  0  0  0
   17.2960   49.3170   -9.1880 H   0  0  0  0  0  0  0  0  0  0  0  0
    8.5960   39.2060  -10.2910 H   0  0  0  0  0  0  0  0  0  0  0  0
    9.9400   38.1030   -9.8640 H   0  0  0  0  0  0  0  0  0  0  0  0
    9.6620   38.5600  -11.5660 H   0  0  0  0  0  0  0  0  0  0  0  0
   18.7000   47.4510   -9.3200 H   0  0  0  0  0  0  0  0  0  0  0  0
   17.4140   46.5190  -10.1020 H   0  0  0  0  0  0  0  0  0  0  0  0
   12.1610   38.8950  -10.0060 H   0  0  0  0  0  0  0  0  0  0  0  0
   11.8900   39.3330  -11.7130 H   0  0  0  0  0  0  0  0  0  0  0  0
   15.2460   39.7260   -6.6250 H   0  0  0  0  0  0  0  0  0  0  0  0
   20.7600   45.6650   -5.3200 H   0  0  0  0  0  0  0  0  0  0  0  0
   17.6550   41.1890   -6.5600 H   0  0  0  0  0  0  0  0  0  0  0  0
   13.4400   41.0340   -7.2360 H   0  0  0  0  0  0  0  0  0  0  0  0
   12.9480   39.7170   -8.0730 H   0  0  0  0  0  0  0  0  0  0  0  0
   14.1540   38.1180   -7.8020 H   0  0  0  0  0  0  0  0  0  0  0  0
  1  2  2  0  0  0  0
  1  3  1  0  0  0  0
  1 38  1  0  0  0  0
  4 10  2  0  0  0  0
 10 26  1  0  0  0  0
  7 10  1  0  0  0  0
 11 29  1  0  0  0  0
  5 11  1  0  0  0  0
  7 11  2  0  0  0  0
  3 12  2  0  0  0  0
 12 33  1  0  0  0  0
  6 12  1  0  0  0  0
 13 30  1  0  0  0  0
  8 13  1  0  0  0  0
 13 32  2  0  0  0  0
 14 21  1  0  0  0  0
 14 46  1  0  0  0  0
 14 45  1  0  0  0  0
  9 14  1  0  0  0  0
 15 16  1  0  0  0  0
 15 17  1  0  0  0  0
 15 47  1  0  0  0  0
 15 48  1  0  0  0  0
 16 50  1  0  0  0  0
 16 19  1  0  0  0  0
 16 49  1  0  0  0  0
 17 29  1  0  0  0  0
 17 51  1  0  0  0  0
 17 52  1  0  0  0  0
 18 23  1  0  0  0  0
 18 31  1  0  0  0  0
 18 53  1  0  0  0  0
 18 54  1  0  0  0  0
 19 33  1  0  0  0  0
 19 55  1  0  0  0  0
 19 56  1  0  0  0  0
  2 39  1  0  0  0  0
  2  9  1  0  0  0  0
 20 22  1  0  0  0  0
 20 57  1  0  0  0  0
 20 58  1  0  0  0  0
 20 34  1  0  0  0  0
 21 30  1  0  0  0  0
 21 59  1  0  0  0  0
 21 28  1  0  0  0  0
 22 60  1  0  0  0  0
 22 28  1  0  0  0  0
 22 31  1  0  0  0  0
 23 61  1  0  0  0  0
 23 34  1  0  0  0  0
 23 27  1  0  0  0  0
 24 62  1  0  0  0  0
 24 63  1  0  0  0  0
 24 64  1  0  0  0  0
 24 36  1  0  0  0  0
 25 65  1  0  0  0  0
 25 66  1  0  0  0  0
 25 67  1  0  0  0  0
 25 37  1  0  0  0  0
 26 69  1  0  0  0  0
 26 68  1  0  0  0  0
 26 36  1  0  0  0  0
 27 37  1  0  0  0  0
 27 70  1  0  0  0  0
 27 71  1  0  0  0  0
 28 72  1  0  0  0  0
 28 35  1  0  0  0  0
  3 40  1  0  0  0  0
  4 41  1  0  0  0  0
  4  8  1  0  0  0  0
  5 42  1  0  0  0  0
  5  8  2  0  0  0  0
  6 43  1  0  0  0  0
  6  9  2  0  0  0  0
  7 44  1  0  0  0  0
 29 73  1  0  0  0  0
 30 74  1  0  0  0  0
 31 75  1  0  0  0  0
 31 76  1  0  0  0  0
 35 77  1  0  0  0  0
M  CHG  1  31   1
M  END
