REMARK ENERGY -33.65
  -OEChem-10041812273D

 83 86  0     1  0  0  0  0  0999 V2000
   19.9190   37.4400   -5.4220 C   0  0  0  0  0  0  0  0  0  0  0  0
   11.1640   40.7590  -12.2040 C   0  0  0  0  0  0  0  0  0  0  0  0
   19.0620   37.5500   -6.5190 C   0  0  0  0  0  0  0  0  0  0  0  0
   11.6830   40.9000  -10.9170 C   0  0  0  0  0  0  0  0  0  0  0  0
   11.0690   39.4940  -12.7840 C   0  0  0  0  0  0  0  0  0  0  0  0
   20.9290   38.3820   -5.2200 C   0  0  0  0  0  0  0  0  0  0  0  0
   17.7540   44.4940   -8.6940 C   0  0  0  0  0  0  0  0  0  0  0  0
   18.9940   43.3110   -6.9700 C   0  0  0  0  0  0  0  0  0  0  0  0
   20.2510   39.5200   -7.2400 C   0  0  0  0  0  0  0  0  0  0  0  0
   12.0120   38.5100  -10.7890 C   0  0  0  0  0  0  0  0  0  0  0  0
   18.9320   45.7250   -6.9840 C   0  0  0  0  0  0  0  0  0  0  0  0
   18.1730   43.2950   -8.1100 C   0  0  0  0  0  0  0  0  0  0  0  0
   19.2150   38.5970   -7.4340 C   0  0  0  0  0  0  0  0  0  0  0  0
   12.1080   39.7740  -10.2100 C   0  0  0  0  0  0  0  0  0  0  0  0
   11.4930   38.3690  -12.0770 C   0  0  0  0  0  0  0  0  0  0  0  0
   18.1310   45.7080   -8.1250 C   0  0  0  0  0  0  0  0  0  0  0  0
   21.0870   39.4320   -6.1240 C   0  0  0  0  0  0  0  0  0  0  0  0
   19.3760   44.5310   -6.4030 C   0  0  0  0  0  0  0  0  0  0  0  0
   17.7490   42.0220   -8.7430 C   0  0  0  0  0  0  0  0  0  0  0  0
   18.2620   38.7620   -8.5930 C   0  0  0  0  0  0  0  0  0  0  0  0
   22.9840   42.2070   -4.7430 C   0  0  0  0  0  0  0  0  0  0  0  0
   22.1270   43.2720   -5.4340 C   0  0  0  0  0  0  0  0  0  0  0  0
   22.3440   40.8200   -4.6900 C   0  0  0  0  0  0  0  0  0  0  0  0
   20.8110   43.5670   -4.7130 C   0  0  0  0  0  0  0  0  0  0  0  0
   17.0400   39.6610   -8.3040 C   0  0  1  0  0  0  0  0  0  0  0  0
   10.4530   36.0790  -11.9140 C   0  0  0  0  0  0  0  0  0  0  0  0
   12.7670   36.3470  -12.8760 C   0  0  0  0  0  0  0  0  0  0  0  0
   18.0240   48.4570  -10.5380 C   0  0  0  0  0  0  0  0  0  0  0  0
   12.6640   39.9260   -8.8250 C   0  0  0  0  0  0  0  0  0  0  0  0
   17.6760   46.9900   -8.7350 C   0  0  0  0  0  0  0  0  0  0  0  0
   14.6630   39.6250   -7.3580 C   0  0  0  0  0  0  0  0  0  0  0  0
   11.3910   37.0170  -12.6960 C   0  0  0  0  0  0  0  0  0  0  0  0
   16.0710   39.0450   -7.2970 C   0  0  1  0  0  0  0  0  0  0  0  0
   17.4370   40.9980   -7.8660 N   0  0  0  0  0  0  0  0  0  0  0  0
   14.0640   39.4340   -8.7020 N   0  3  0  0  0  0  0  0  0  0  0  0
   17.6790   41.9550   -9.9670 O   0  0  0  0  0  0  0  0  0  0  0  0
   22.0410   40.4080   -6.0240 O   0  0  0  0  0  0  0  0  0  0  0  0
   20.1650   44.7010   -5.2960 O   0  0  0  0  0  0  0  0  0  0  0  0
   16.0040   37.6370   -7.5050 O   0  0  0  0  0  0  0  0  0  0  0  0
   18.4230   47.2420   -9.9190 O   0  0  0  0  0  0  0  0  0  0  0  0
   19.7940   36.6230   -4.7180 H   0  0  0  0  0  0  0  0  0  0  0  0
   10.8340   41.6360  -12.7550 H   0  0  0  0  0  0  0  0  0  0  0  0
   18.2700   36.8160   -6.6480 H   0  0  0  0  0  0  0  0  0  0  0  0
   11.7530   41.8890  -10.4730 H   0  0  0  0  0  0  0  0  0  0  0  0
   10.6640   39.3940  -13.7870 H   0  0  0  0  0  0  0  0  0  0  0  0
   21.5830   38.2710   -4.3600 H   0  0  0  0  0  0  0  0  0  0  0  0
   17.1230   44.4890   -9.5800 H   0  0  0  0  0  0  0  0  0  0  0  0
   19.3350   42.3720   -6.5510 H   0  0  0  0  0  0  0  0  0  0  0  0
   20.3880   40.3340   -7.9480 H   0  0  0  0  0  0  0  0  0  0  0  0
   12.3410   37.6320  -10.2380 H   0  0  0  0  0  0  0  0  0  0  0  0
   19.2230   46.6780   -6.5460 H   0  0  0  0  0  0  0  0  0  0  0  0
   18.8210   39.1770   -9.4430 H   0  0  0  0  0  0  0  0  0  0  0  0
   17.9210   37.7740   -8.9260 H   0  0  0  0  0  0  0  0  0  0  0  0
   23.9290   42.1340   -5.2980 H   0  0  0  0  0  0  0  0  0  0  0  0
   23.2320   42.5320   -3.7260 H   0  0  0  0  0  0  0  0  0  0  0  0
   22.7060   44.2020   -5.4980 H   0  0  0  0  0  0  0  0  0  0  0  0
   21.9300   42.9850   -6.4740 H   0  0  0  0  0  0  0  0  0  0  0  0
   23.0590   40.1150   -4.2490 H   0  0  0  0  0  0  0  0  0  0  0  0
   21.4440   40.8520   -4.0640 H   0  0  0  0  0  0  0  0  0  0  0  0
   20.1450   42.7010   -4.6460 H   0  0  0  0  0  0  0  0  0  0  0  0
   21.0360   43.8490   -3.6770 H   0  0  0  0  0  0  0  0  0  0  0  0
   16.4970   39.7780   -9.2500 H   0  0  0  0  0  0  0  0  0  0  0  0
   10.7970   35.9290  -10.8850 H   0  0  0  0  0  0  0  0  0  0  0  0
   10.3840   35.0940  -12.3880 H   0  0  0  0  0  0  0  0  0  0  0  0
    9.4420   36.5010  -11.8700 H   0  0  0  0  0  0  0  0  0  0  0  0
   13.2630   36.2260  -11.9070 H   0  0  0  0  0  0  0  0  0  0  0  0
   13.4230   36.9450  -13.5180 H   0  0  0  0  0  0  0  0  0  0  0  0
   12.6750   35.3530  -13.3300 H   0  0  0  0  0  0  0  0  0  0  0  0
   18.6170   48.6170  -11.4420 H   0  0  0  0  0  0  0  0  0  0  0  0
   18.1700   49.2870   -9.8420 H   0  0  0  0  0  0  0  0  0  0  0  0
   16.9680   48.3900  -10.8060 H   0  0  0  0  0  0  0  0  0  0  0  0
   12.6720   40.9760   -8.5130 H   0  0  0  0  0  0  0  0  0  0  0  0
   12.0690   39.3660   -8.0950 H   0  0  0  0  0  0  0  0  0  0  0  0
   16.6090   46.9550   -8.9950 H   0  0  0  0  0  0  0  0  0  0  0  0
   17.8180   47.8310   -8.0430 H   0  0  0  0  0  0  0  0  0  0  0  0
   14.6550   40.7010   -7.1590 H   0  0  0  0  0  0  0  0  0  0  0  0
   13.9980   39.1140   -6.6570 H   0  0  0  0  0  0  0  0  0  0  0  0
   10.9590   37.1000  -13.7120 H   0  0  0  0  0  0  0  0  0  0  0  0
   16.4650   39.2060   -6.2880 H   0  0  0  0  0  0  0  0  0  0  0  0
   17.5180   41.1510   -6.8640 H   0  0  0  0  0  0  0  0  0  0  0  0
   14.0900   38.4340   -8.9460 H   0  0  0  0  0  0  0  0  0  0  0  0
   14.6480   39.9080   -9.4060 H   0  0  0  0  0  0  0  0  0  0  0  0
   15.3810   37.2900   -6.8480 H   0  0  0  0  0  0  0  0  0  0  0  0
  1  3  2  0  0  0  0
  1 41  1  0  0  0  0
  1  6  1  0  0  0  0
 10 50  1  0  0  0  0
 10 14  2  0  0  0  0
 10 15  1  0  0  0  0
 11 51  1  0  0  0  0
 11 18  2  0  0  0  0
 11 16  1  0  0  0  0
  8 12  2  0  0  0  0
  7 12  1  0  0  0  0
 12 19  1  0  0  0  0
  9 13  2  0  0  0  0
  3 13  1  0  0  0  0
 13 20  1  0  0  0  0
  4 14  1  0  0  0  0
 14 29  1  0  0  0  0
 15 32  1  0  0  0  0
  5 15  2  0  0  0  0
  7 16  2  0  0  0  0
 16 30  1  0  0  0  0
  9 17  1  0  0  0  0
  6 17  2  0  0  0  0
 17 37  1  0  0  0  0
  8 18  1  0  0  0  0
 18 38  1  0  0  0  0
 19 34  1  0  0  0  0
 19 36  2  0  0  0  0
  2  4  2  0  0  0  0
  2 42  1  0  0  0  0
  2  5  1  0  0  0  0
 20 52  1  0  0  0  0
 20 53  1  0  0  0  0
 20 25  1  0  0  0  0
 21 54  1  0  0  0  0
 21 55  1  0  0  0  0
 21 22  1  0  0  0  0
 21 23  1  0  0  0  0
 22 56  1  0  0  0  0
 22 57  1  0  0  0  0
 22 24  1  0  0  0  0
 23 58  1  0  0  0  0
 23 59  1  0  0  0  0
 23 37  1  0  0  0  0
 24 38  1  0  0  0  0
 24 60  1  0  0  0  0
 24 61  1  0  0  0  0
 25 62  1  0  0  0  0
 25 33  1  0  0  0  0
 25 34  1  0  0  0  0
 26 63  1  0  0  0  0
 26 64  1  0  0  0  0
 26 65  1  0  0  0  0
 26 32  1  0  0  0  0
 27 66  1  0  0  0  0
 27 67  1  0  0  0  0
 27 68  1  0  0  0  0
 27 32  1  0  0  0  0
 28 69  1  0  0  0  0
 28 70  1  0  0  0  0
 28 40  1  0  0  0  0
 28 71  1  0  0  0  0
 29 72  1  0  0  0  0
 29 73  1  0  0  0  0
 29 35  1  0  0  0  0
  3 43  1  0  0  0  0
 30 74  1  0  0  0  0
 30 75  1  0  0  0  0
 30 40  1  0  0  0  0
 31 76  1  0  0  0  0
 31 33  1  0  0  0  0
 31 77  1  0  0  0  0
 31 35  1  0  0  0  0
 32 78  1  0  0  0  0
 33 39  1  0  0  0  0
 33 79  1  0  0  0  0
  4 44  1  0  0  0  0
  5 45  1  0  0  0  0
  6 46  1  0  0  0  0
  7 47  1  0  0  0  0
  8 48  1  0  0  0  0
  9 49  1  0  0  0  0
 34 80  1  0  0  0  0
 35 81  1  0  0  0  0
 35 82  1  0  0  0  0
 39 83  1  0  0  0  0
M  CHG  1  35   1
M  END
