REMARK ENERGY -45.07
  -OEChem-10041812273D

 86 88  0     1  0  0  0  0  0999 V2000
   12.3880   41.3330  -13.5210 C   0  0  0  0  0  0  0  0  0  0  0  0
   12.5930   41.5950  -12.1670 C   0  0  0  0  0  0  0  0  0  0  0  0
   12.0310   40.0500  -13.9370 C   0  0  0  0  0  0  0  0  0  0  0  0
   17.4010   44.1350   -9.4070 C   0  0  0  0  0  0  0  0  0  0  0  0
   18.8290   43.0540   -7.7730 C   0  0  0  0  0  0  0  0  0  0  0  0
   12.0830   39.2920  -11.6430 C   0  0  0  0  0  0  0  0  0  0  0  0
   19.1360   45.3810   -8.2700 C   0  0  0  0  0  0  0  0  0  0  0  0
   17.7660   42.9970   -8.6890 C   0  0  0  0  0  0  0  0  0  0  0  0
   12.4410   40.5750  -11.2270 C   0  0  0  0  0  0  0  0  0  0  0  0
   11.8780   39.0300  -12.9980 C   0  0  0  0  0  0  0  0  0  0  0  0
   18.0860   45.3290   -9.1910 C   0  0  0  0  0  0  0  0  0  0  0  0
   19.5340   44.2460   -7.5470 C   0  0  0  0  0  0  0  0  0  0  0  0
   17.0560   41.7200   -8.9500 C   0  0  0  0  0  0  0  0  0  0  0  0
   22.0530   42.3800   -6.6350 C   0  0  0  0  0  0  0  0  0  0  0  0
   22.7110   41.2850   -5.7900 C   0  0  0  0  0  0  0  0  0  0  0  0
   19.8770   37.6810   -7.2750 C   0  0  0  0  0  0  0  0  0  0  0  0
   17.4740   38.5380   -7.3340 C   0  0  0  0  0  0  0  0  0  0  0  0
   21.0970   43.2640   -5.8320 C   0  0  0  0  0  0  0  0  0  0  0  0
   21.7560   40.1950   -5.3060 C   0  0  0  0  0  0  0  0  0  0  0  0
   20.4200   38.3840   -6.0300 C   0  0  0  0  0  0  0  0  0  0  0  0
   18.8390   38.5120   -8.0650 C   0  0  2  0  0  0  0  0  0  0  0  0
   16.4420   39.5100   -7.9370 C   0  0  1  0  0  0  0  0  0  0  0  0
   18.6940   37.9280   -9.4760 C   0  0  0  0  0  0  0  0  0  0  0  0
   10.1420   37.2080  -12.8640 C   0  0  0  0  0  0  0  0  0  0  0  0
   12.5780   36.6120  -13.1160 C   0  0  0  0  0  0  0  0  0  0  0  0
   16.5900   48.6200   -9.7610 C   0  0  0  0  0  0  0  0  0  0  0  0
   12.6600   40.8590   -9.7710 C   0  0  0  0  0  0  0  0  0  0  0  0
   17.6980   46.5550   -9.9470 C   0  0  0  0  0  0  0  0  0  0  0  0
   14.0290   40.3370   -7.7480 C   0  0  0  0  0  0  0  0  0  0  0  0
   11.4960   37.6580  -13.4420 C   0  0  0  0  0  0  0  0  0  0  0  0
   15.1110   39.4170   -7.1970 C   0  0  1  0  0  0  0  0  0  0  0  0
   20.5860   44.3520   -6.6490 N   0  0  0  0  0  0  0  0  0  0  0  0
   16.9480   40.8770   -7.8580 N   0  0  0  0  0  0  0  0  0  0  0  0
   13.7470   40.0370   -9.1740 N   0  3  0  0  0  0  0  0  0  0  0  0
   16.6290   41.4880  -10.0770 O   0  0  0  0  0  0  0  0  0  0  0  0
   21.1860   39.5220   -6.4270 O   0  0  0  0  0  0  0  0  0  0  0  0
   14.6420   38.0730   -7.2330 O   0  0  0  0  0  0  0  0  0  0  0  0
   16.9820   47.4330   -9.0860 O   0  0  0  0  0  0  0  0  0  0  0  0
   12.5070   42.1280  -14.2520 H   0  0  0  0  0  0  0  0  0  0  0  0
   12.8710   42.5980  -11.8520 H   0  0  0  0  0  0  0  0  0  0  0  0
   11.8740   39.8540  -14.9940 H   0  0  0  0  0  0  0  0  0  0  0  0
   16.5870   44.1030  -10.1260 H   0  0  0  0  0  0  0  0  0  0  0  0
   19.1260   42.1500   -7.2490 H   0  0  0  0  0  0  0  0  0  0  0  0
   11.9640   38.4970  -10.9110 H   0  0  0  0  0  0  0  0  0  0  0  0
   19.6580   46.3260   -8.1180 H   0  0  0  0  0  0  0  0  0  0  0  0
   22.8470   43.0120   -7.0560 H   0  0  0  0  0  0  0  0  0  0  0  0
   21.5410   41.9310   -7.4940 H   0  0  0  0  0  0  0  0  0  0  0  0
   23.4870   40.8140   -6.4070 H   0  0  0  0  0  0  0  0  0  0  0  0
   23.2140   41.7370   -4.9280 H   0  0  0  0  0  0  0  0  0  0  0  0
   20.7280   37.4630   -7.9320 H   0  0  0  0  0  0  0  0  0  0  0  0
   19.4360   36.7200   -6.9860 H   0  0  0  0  0  0  0  0  0  0  0  0
   17.0520   37.5240   -7.3260 H   0  0  0  0  0  0  0  0  0  0  0  0
   17.6290   38.8140   -6.2830 H   0  0  0  0  0  0  0  0  0  0  0  0
   20.2780   42.6910   -5.3860 H   0  0  0  0  0  0  0  0  0  0  0  0
   21.6480   43.7080   -4.9940 H   0  0  0  0  0  0  0  0  0  0  0  0
   22.3210   39.4780   -4.7000 H   0  0  0  0  0  0  0  0  0  0  0  0
   20.9570   40.6150   -4.6860 H   0  0  0  0  0  0  0  0  0  0  0  0
   19.6150   38.6940   -5.3570 H   0  0  0  0  0  0  0  0  0  0  0  0
   21.0720   37.6870   -5.4900 H   0  0  0  0  0  0  0  0  0  0  0  0
   19.2220   39.5340   -8.1680 H   0  0  0  0  0  0  0  0  0  0  0  0
   16.2590   39.2580   -8.9860 H   0  0  0  0  0  0  0  0  0  0  0  0
   18.3150   36.9120   -9.4110 H   0  0  0  0  0  0  0  0  0  0  0  0
   19.6620   37.9210   -9.9670 H   0  0  0  0  0  0  0  0  0  0  0  0
   18.0000   38.5360  -10.0500 H   0  0  0  0  0  0  0  0  0  0  0  0
   10.1560   37.1920  -11.7680 H   0  0  0  0  0  0  0  0  0  0  0  0
    9.8750   36.2020  -13.2060 H   0  0  0  0  0  0  0  0  0  0  0  0
    9.3460   37.8910  -13.1770 H   0  0  0  0  0  0  0  0  0  0  0  0
   12.7550   36.5680  -12.0360 H   0  0  0  0  0  0  0  0  0  0  0  0
   13.5300   36.8540  -13.6020 H   0  0  0  0  0  0  0  0  0  0  0  0
   12.2830   35.6100  -13.4460 H   0  0  0  0  0  0  0  0  0  0  0  0
   16.0440   49.2680   -9.0710 H   0  0  0  0  0  0  0  0  0  0  0  0
   15.9570   48.3620  -10.6140 H   0  0  0  0  0  0  0  0  0  0  0  0
   17.4830   49.1380  -10.1160 H   0  0  0  0  0  0  0  0  0  0  0  0
   12.9330   41.9070   -9.6080 H   0  0  0  0  0  0  0  0  0  0  0  0
   11.7550   40.6550   -9.1880 H   0  0  0  0  0  0  0  0  0  0  0  0
   18.5800   47.0840  -10.3310 H   0  0  0  0  0  0  0  0  0  0  0  0
   17.0610   46.3070  -10.8060 H   0  0  0  0  0  0  0  0  0  0  0  0
   14.3240   41.3900   -7.7000 H   0  0  0  0  0  0  0  0  0  0  0  0
   13.0820   40.1920   -7.2180 H   0  0  0  0  0  0  0  0  0  0  0  0
   11.3780   37.6400  -14.5420 H   0  0  0  0  0  0  0  0  0  0  0  0
   15.2750   39.6740   -6.1450 H   0  0  0  0  0  0  0  0  0  0  0  0
   21.0580   45.2480   -6.5810 H   0  0  0  0  0  0  0  0  0  0  0  0
   17.2420   41.1990   -6.9410 H   0  0  0  0  0  0  0  0  0  0  0  0
   13.5050   39.0400   -9.2700 H   0  0  0  0  0  0  0  0  0  0  0  0
   14.6070   40.1680   -9.7250 H   0  0  0  0  0  0  0  0  0  0  0  0
   13.7980   38.0600   -6.7540 H   0  0  0  0  0  0  0  0  0  0  0  0
  1  2  2  0  0  0  0
  1  3  1  0  0  0  0
  1 39  1  0  0  0  0
  3 10  2  0  0  0  0
  6 10  1  0  0  0  0
 10 30  1  0  0  0  0
  7 11  2  0  0  0  0
 11 28  1  0  0  0  0
  4 11  1  0  0  0  0
  7 12  1  0  0  0  0
 12 32  1  0  0  0  0
  5 12  2  0  0  0  0
 13 33  1  0  0  0  0
 13 35  2  0  0  0  0
  8 13  1  0  0  0  0
 14 18  1  0  0  0  0
 14 15  1  0  0  0  0
 14 46  1  0  0  0  0
 14 47  1  0  0  0  0
 15 19  1  0  0  0  0
 15 48  1  0  0  0  0
 15 49  1  0  0  0  0
 16 20  1  0  0  0  0
 16 50  1  0  0  0  0
 16 21  1  0  0  0  0
 16 51  1  0  0  0  0
 17 53  1  0  0  0  0
 17 21  1  0  0  0  0
 17 22  1  0  0  0  0
 17 52  1  0  0  0  0
 18 55  1  0  0  0  0
 18 32  1  0  0  0  0
 18 54  1  0  0  0  0
 19 56  1  0  0  0  0
 19 57  1  0  0  0  0
 19 36  1  0  0  0  0
  2 40  1  0  0  0  0
  2  9  1  0  0  0  0
 20 59  1  0  0  0  0
 20 58  1  0  0  0  0
 20 36  1  0  0  0  0
 21 23  1  0  0  0  0
 21 60  1  0  0  0  0
 22 33  1  0  0  0  0
 22 61  1  0  0  0  0
 22 31  1  0  0  0  0
 23 62  1  0  0  0  0
 23 63  1  0  0  0  0
 23 64  1  0  0  0  0
 24 67  1  0  0  0  0
 24 65  1  0  0  0  0
 24 66  1  0  0  0  0
 24 30  1  0  0  0  0
 25 68  1  0  0  0  0
 25 69  1  0  0  0  0
 25 70  1  0  0  0  0
 25 30  1  0  0  0  0
 26 72  1  0  0  0  0
 26 73  1  0  0  0  0
 26 71  1  0  0  0  0
 26 38  1  0  0  0  0
 27 34  1  0  0  0  0
  9 27  1  0  0  0  0
 27 74  1  0  0  0  0
 27 75  1  0  0  0  0
 28 76  1  0  0  0  0
 28 77  1  0  0  0  0
 28 38  1  0  0  0  0
 29 34  1  0  0  0  0
 29 31  1  0  0  0  0
 29 78  1  0  0  0  0
 29 79  1  0  0  0  0
  3 41  1  0  0  0  0
 30 80  1  0  0  0  0
 31 81  1  0  0  0  0
 31 37  1  0  0  0  0
  4 42  1  0  0  0  0
  4  8  2  0  0  0  0
  5 43  1  0  0  0  0
  5  8  1  0  0  0  0
  6 44  1  0  0  0  0
  6  9  2  0  0  0  0
  7 45  1  0  0  0  0
 32 82  1  0  0  0  0
 33 83  1  0  0  0  0
 34 84  1  0  0  0  0
 34 85  1  0  0  0  0
 37 86  1  0  0  0  0
M  CHG  1  34   1
M  END
