REMARK ENERGY -38.38
  -OEChem-10041812273D

 83 85  0     1  0  0  0  0  0999 V2000
   18.5560   45.6860   -8.3570 C   0  0  0  0  0  0  0  0  0  0  0  0
   11.4390   40.3430  -12.9850 C   0  0  0  0  0  0  0  0  0  0  0  0
   17.6800   44.6350   -8.6480 C   0  0  0  0  0  0  0  0  0  0  0  0
   19.5810   45.5100   -7.4280 C   0  0  0  0  0  0  0  0  0  0  0  0
   11.6860   40.7700  -11.6800 C   0  0  0  0  0  0  0  0  0  0  0  0
   11.3470   38.9810  -13.2670 C   0  0  0  0  0  0  0  0  0  0  0  0
   18.8290   43.2360   -7.0400 C   0  0  0  0  0  0  0  0  0  0  0  0
   11.7490   38.4710  -10.9390 C   0  0  0  0  0  0  0  0  0  0  0  0
   17.8100   43.4100   -7.9860 C   0  0  0  0  0  0  0  0  0  0  0  0
   19.7260   44.2780   -6.7910 C   0  0  0  0  0  0  0  0  0  0  0  0
   11.8410   39.8330  -10.6570 C   0  0  0  0  0  0  0  0  0  0  0  0
   11.5010   38.0440  -12.2450 C   0  0  0  0  0  0  0  0  0  0  0  0
   16.9360   42.2770   -8.3860 C   0  0  0  0  0  0  0  0  0  0  0  0
   20.8090   44.1030   -5.8090 C   0  0  0  0  0  0  0  0  0  0  0  0
   21.5730   40.1830   -8.4830 C   0  0  0  0  0  0  0  0  0  0  0  0
   21.1800   38.7040   -8.3700 C   0  0  0  0  0  0  0  0  0  0  0  0
   21.6180   40.9150   -7.1390 C   0  0  0  0  0  0  0  0  0  0  0  0
   19.8180   38.4140   -7.7200 C   0  0  0  0  0  0  0  0  0  0  0  0
   17.3550   38.9500   -7.4530 C   0  0  0  0  0  0  0  0  0  0  0  0
   21.9700   42.3960   -7.3190 C   0  0  0  0  0  0  0  0  0  0  0  0
   18.6160   39.1680   -8.3290 C   0  0  2  0  0  0  0  0  0  0  0  0
   16.2270   39.9740   -7.7040 C   0  0  1  0  0  0  0  0  0  0  0  0
   18.3630   38.7430   -9.7780 C   0  0  0  0  0  0  0  0  0  0  0  0
   24.0120   43.8850   -5.2850 C   0  0  0  0  0  0  0  0  0  0  0  0
   10.2330   35.9090  -11.8060 C   0  0  0  0  0  0  0  0  0  0  0  0
   12.7140   35.8340  -12.2510 C   0  0  0  0  0  0  0  0  0  0  0  0
   12.1050   40.2940   -9.2540 C   0  0  0  0  0  0  0  0  0  0  0  0
   22.8620   42.9630   -5.0670 C   0  0  0  0  0  0  0  0  0  0  0  0
   13.7120   40.2730   -7.3410 C   0  0  0  0  0  0  0  0  0  0  0  0
   11.4030   36.5860  -12.5460 C   0  0  0  0  0  0  0  0  0  0  0  0
   15.0130   39.6650   -6.8310 C   0  0  1  0  0  0  0  0  0  0  0  0
   16.7150   41.3200   -7.4070 N   0  0  0  0  0  0  0  0  0  0  0  0
   21.8240   43.1690   -6.0710 N   0  0  0  0  0  0  0  0  0  0  0  0
   13.3930   39.7870   -8.7070 N   0  3  0  0  0  0  0  0  0  0  0  0
   16.5110   42.2250   -9.5360 O   0  0  0  0  0  0  0  0  0  0  0  0
   20.7430   44.8140   -4.8060 O   0  0  0  0  0  0  0  0  0  0  0  0
   14.8540   38.2540   -6.7220 O   0  0  0  0  0  0  0  0  0  0  0  0
   18.4450   46.6370   -8.8670 H   0  0  0  0  0  0  0  0  0  0  0  0
   11.3180   41.0720  -13.7800 H   0  0  0  0  0  0  0  0  0  0  0  0
   16.9050   44.7900   -9.3940 H   0  0  0  0  0  0  0  0  0  0  0  0
   20.2610   46.3310   -7.2210 H   0  0  0  0  0  0  0  0  0  0  0  0
   11.7570   41.8340  -11.4690 H   0  0  0  0  0  0  0  0  0  0  0  0
   11.1550   38.6570  -14.2860 H   0  0  0  0  0  0  0  0  0  0  0  0
   18.9570   42.2930   -6.5200 H   0  0  0  0  0  0  0  0  0  0  0  0
   11.8680   37.7410  -10.1430 H   0  0  0  0  0  0  0  0  0  0  0  0
   22.5630   40.2410   -8.9510 H   0  0  0  0  0  0  0  0  0  0  0  0
   20.8850   40.6980   -9.1660 H   0  0  0  0  0  0  0  0  0  0  0  0
   21.2030   38.2620   -9.3740 H   0  0  0  0  0  0  0  0  0  0  0  0
   21.9520   38.1780   -7.7950 H   0  0  0  0  0  0  0  0  0  0  0  0
   20.6560   40.8300   -6.6270 H   0  0  0  0  0  0  0  0  0  0  0  0
   22.3580   40.4330   -6.4900 H   0  0  0  0  0  0  0  0  0  0  0  0
   19.6330   37.3330   -7.7700 H   0  0  0  0  0  0  0  0  0  0  0  0
   19.8920   38.6540   -6.6520 H   0  0  0  0  0  0  0  0  0  0  0  0
   16.9730   37.9340   -7.6110 H   0  0  0  0  0  0  0  0  0  0  0  0
   17.6440   39.0140   -6.3950 H   0  0  0  0  0  0  0  0  0  0  0  0
   23.0090   42.4990   -7.6540 H   0  0  0  0  0  0  0  0  0  0  0  0
   21.3510   42.8390   -8.1060 H   0  0  0  0  0  0  0  0  0  0  0  0
   18.8570   40.2330   -8.3270 H   0  0  0  0  0  0  0  0  0  0  0  0
   15.9150   39.9290   -8.7520 H   0  0  0  0  0  0  0  0  0  0  0  0
   18.1190   37.6840   -9.8110 H   0  0  0  0  0  0  0  0  0  0  0  0
   19.2540   38.9270  -10.3730 H   0  0  0  0  0  0  0  0  0  0  0  0
   17.5330   39.3160  -10.1860 H   0  0  0  0  0  0  0  0  0  0  0  0
   24.4660   43.7180   -6.2680 H   0  0  0  0  0  0  0  0  0  0  0  0
   23.6950   44.9310   -5.2070 H   0  0  0  0  0  0  0  0  0  0  0  0
   24.7800   43.7070   -4.5230 H   0  0  0  0  0  0  0  0  0  0  0  0
   10.3370   36.0000  -10.7200 H   0  0  0  0  0  0  0  0  0  0  0  0
   10.1730   34.8420  -12.0460 H   0  0  0  0  0  0  0  0  0  0  0  0
    9.2820   36.3730  -12.0900 H   0  0  0  0  0  0  0  0  0  0  0  0
   12.9810   35.9320  -11.1920 H   0  0  0  0  0  0  0  0  0  0  0  0
   13.5460   36.2300  -12.8440 H   0  0  0  0  0  0  0  0  0  0  0  0
   12.6260   34.7660  -12.4750 H   0  0  0  0  0  0  0  0  0  0  0  0
   12.1480   41.3870   -9.1960 H   0  0  0  0  0  0  0  0  0  0  0  0
   11.3180   39.9540   -8.5710 H   0  0  0  0  0  0  0  0  0  0  0  0
   22.4140   43.1340   -4.0830 H   0  0  0  0  0  0  0  0  0  0  0  0
   23.1840   41.9190   -5.1290 H   0  0  0  0  0  0  0  0  0  0  0  0
   13.7650   41.3640   -7.4000 H   0  0  0  0  0  0  0  0  0  0  0  0
   12.8670   39.9770   -6.7130 H   0  0  0  0  0  0  0  0  0  0  0  0
   11.2050   36.4400  -13.6260 H   0  0  0  0  0  0  0  0  0  0  0  0
   15.1970   40.0490   -5.8230 H   0  0  0  0  0  0  0  0  0  0  0  0
   16.8980   41.5660   -6.4400 H   0  0  0  0  0  0  0  0  0  0  0  0
   13.3730   38.7560   -8.7040 H   0  0  0  0  0  0  0  0  0  0  0  0
   14.1560   40.0490   -9.3480 H   0  0  0  0  0  0  0  0  0  0  0  0
   14.0760   38.1050   -6.1630 H   0  0  0  0  0  0  0  0  0  0  0  0
  1 38  1  0  0  0  0
  1  3  2  0  0  0  0
  1  4  1  0  0  0  0
  4 10  2  0  0  0  0
 10 14  1  0  0  0  0
  7 10  1  0  0  0  0
 11 27  1  0  0  0  0
  5 11  2  0  0  0  0
  8 11  1  0  0  0  0
 12 30  1  0  0  0  0
  6 12  1  0  0  0  0
  8 12  2  0  0  0  0
 13 35  2  0  0  0  0
 13 32  1  0  0  0  0
  9 13  1  0  0  0  0
 14 33  1  0  0  0  0
 14 36  2  0  0  0  0
 15 17  1  0  0  0  0
 15 46  1  0  0  0  0
 15 47  1  0  0  0  0
 15 16  1  0  0  0  0
 16 18  1  0  0  0  0
 16 48  1  0  0  0  0
 16 49  1  0  0  0  0
 17 20  1  0  0  0  0
 17 50  1  0  0  0  0
 17 51  1  0  0  0  0
 18 21  1  0  0  0  0
 18 52  1  0  0  0  0
 18 53  1  0  0  0  0
 19 21  1  0  0  0  0
 19 22  1  0  0  0  0
 19 54  1  0  0  0  0
 19 55  1  0  0  0  0
  2 39  1  0  0  0  0
  2  5  1  0  0  0  0
  2  6  2  0  0  0  0
 20 33  1  0  0  0  0
 20 57  1  0  0  0  0
 20 56  1  0  0  0  0
 21 23  1  0  0  0  0
 21 58  1  0  0  0  0
 22 31  1  0  0  0  0
 22 32  1  0  0  0  0
 22 59  1  0  0  0  0
 23 61  1  0  0  0  0
 23 62  1  0  0  0  0
 23 60  1  0  0  0  0
 24 63  1  0  0  0  0
 24 64  1  0  0  0  0
 24 65  1  0  0  0  0
 24 28  1  0  0  0  0
 25 30  1  0  0  0  0
 25 66  1  0  0  0  0
 25 67  1  0  0  0  0
 25 68  1  0  0  0  0
 26 69  1  0  0  0  0
 26 70  1  0  0  0  0
 26 71  1  0  0  0  0
 26 30  1  0  0  0  0
 27 72  1  0  0  0  0
 27 34  1  0  0  0  0
 27 73  1  0  0  0  0
 28 33  1  0  0  0  0
 28 74  1  0  0  0  0
 28 75  1  0  0  0  0
 29 77  1  0  0  0  0
 29 34  1  0  0  0  0
 29 31  1  0  0  0  0
 29 76  1  0  0  0  0
  3 40  1  0  0  0  0
  3  9  1  0  0  0  0
 30 78  1  0  0  0  0
 31 79  1  0  0  0  0
 31 37  1  0  0  0  0
  4 41  1  0  0  0  0
  5 42  1  0  0  0  0
  6 43  1  0  0  0  0
  7 44  1  0  0  0  0
  7  9  2  0  0  0  0
  8 45  1  0  0  0  0
 32 80  1  0  0  0  0
 34 81  1  0  0  0  0
 34 82  1  0  0  0  0
 37 83  1  0  0  0  0
M  CHG  1  34   1
M  END
