REMARK ENERGY -45.64
  -OEChem-10041812273D

 83 85  0     1  0  0  0  0  0999 V2000
   19.2130   44.8750   -9.3490 C   0  0  0  0  0  0  0  0  0  0  0  0
   12.6430   41.4250  -13.2470 C   0  0  0  0  0  0  0  0  0  0  0  0
   18.4750   43.7050   -9.5410 C   0  0  0  0  0  0  0  0  0  0  0  0
   19.9430   45.0620   -8.1770 C   0  0  0  0  0  0  0  0  0  0  0  0
   12.8980   41.6410  -11.8940 C   0  0  0  0  0  0  0  0  0  0  0  0
   12.2350   40.1650  -13.6880 C   0  0  0  0  0  0  0  0  0  0  0  0
   19.1550   42.9150   -7.3580 C   0  0  0  0  0  0  0  0  0  0  0  0
   12.3350   39.3400  -11.4200 C   0  0  0  0  0  0  0  0  0  0  0  0
   18.4400   42.7160   -8.5470 C   0  0  0  0  0  0  0  0  0  0  0  0
   19.9280   44.0710   -7.1950 C   0  0  0  0  0  0  0  0  0  0  0  0
   12.7450   40.5990  -10.9800 C   0  0  0  0  0  0  0  0  0  0  0  0
   12.0810   39.1240  -12.7740 C   0  0  0  0  0  0  0  0  0  0  0  0
   17.7090   41.4500   -8.8350 C   0  0  0  0  0  0  0  0  0  0  0  0
   20.7110   44.2930   -5.9630 C   0  0  0  0  0  0  0  0  0  0  0  0
   21.4500   39.8910   -6.9700 C   0  0  0  0  0  0  0  0  0  0  0  0
   20.8760   38.6010   -6.3720 C   0  0  0  0  0  0  0  0  0  0  0  0
   21.7090   40.9380   -5.8870 C   0  0  0  0  0  0  0  0  0  0  0  0
   20.3150   37.6280   -7.4210 C   0  0  0  0  0  0  0  0  0  0  0  0
   17.8340   38.2990   -7.3070 C   0  0  0  0  0  0  0  0  0  0  0  0
   22.1840   42.2700   -6.4800 C   0  0  0  0  0  0  0  0  0  0  0  0
   19.0840   38.1380   -8.2060 C   0  0  2  0  0  0  0  0  0  0  0  0
   16.8140   39.3200   -7.8510 C   0  0  1  0  0  0  0  0  0  0  0  0
   18.7820   37.1720   -9.3590 C   0  0  0  0  0  0  0  0  0  0  0  0
   21.8980   42.8730   -3.2840 C   0  0  0  0  0  0  0  0  0  0  0  0
   10.2960   37.3490  -12.6370 C   0  0  0  0  0  0  0  0  0  0  0  0
   12.7050   36.6900  -12.9840 C   0  0  0  0  0  0  0  0  0  0  0  0
   13.0170   40.8330   -9.5230 C   0  0  0  0  0  0  0  0  0  0  0  0
   22.5120   43.6200   -4.4190 C   0  0  0  0  0  0  0  0  0  0  0  0
   14.4330   40.2120   -7.5610 C   0  0  0  0  0  0  0  0  0  0  0  0
   11.6450   37.7770  -13.2450 C   0  0  0  0  0  0  0  0  0  0  0  0
   15.5040   39.2450   -7.0710 C   0  0  1  0  0  0  0  0  0  0  0  0
   17.3620   40.6750   -7.7400 N   0  0  0  0  0  0  0  0  0  0  0  0
   21.7610   43.4130   -5.6520 N   0  0  0  0  0  0  0  0  0  0  0  0
   14.0980   39.9620   -8.9850 N   0  3  0  0  0  0  0  0  0  0  0  0
   17.4730   41.1490  -10.0030 O   0  0  0  0  0  0  0  0  0  0  0  0
   20.3860   45.2710   -5.2910 O   0  0  0  0  0  0  0  0  0  0  0  0
   14.9920   37.9160   -7.1300 O   0  0  0  0  0  0  0  0  0  0  0  0
   19.2290   45.6360  -10.1240 H   0  0  0  0  0  0  0  0  0  0  0  0
   12.7630   42.2360  -13.9590 H   0  0  0  0  0  0  0  0  0  0  0  0
   17.9300   43.5760  -10.4750 H   0  0  0  0  0  0  0  0  0  0  0  0
   20.5260   45.9700   -8.0470 H   0  0  0  0  0  0  0  0  0  0  0  0
   13.2150   42.6260  -11.5600 H   0  0  0  0  0  0  0  0  0  0  0  0
   12.0400   40.0060  -14.7450 H   0  0  0  0  0  0  0  0  0  0  0  0
   19.1480   42.1700   -6.5680 H   0  0  0  0  0  0  0  0  0  0  0  0
   12.2150   38.5270  -10.7070 H   0  0  0  0  0  0  0  0  0  0  0  0
   22.3880   39.6520   -7.4660 H   0  0  0  0  0  0  0  0  0  0  0  0
   20.7750   40.2850   -7.7210 H   0  0  0  0  0  0  0  0  0  0  0  0
   21.6530   38.1060   -5.7970 H   0  0  0  0  0  0  0  0  0  0  0  0
   20.0770   38.8580   -5.6810 H   0  0  0  0  0  0  0  0  0  0  0  0
   20.8020   41.1060   -5.2950 H   0  0  0  0  0  0  0  0  0  0  0  0
   22.4620   40.5530   -5.1850 H   0  0  0  0  0  0  0  0  0  0  0  0
   21.1160   37.3780   -8.1260 H   0  0  0  0  0  0  0  0  0  0  0  0
   20.0580   36.6910   -6.9150 H   0  0  0  0  0  0  0  0  0  0  0  0
   17.3500   37.3270   -7.1750 H   0  0  0  0  0  0  0  0  0  0  0  0
   18.1520   38.6330   -6.3120 H   0  0  0  0  0  0  0  0  0  0  0  0
   23.2760   42.2870   -6.5390 H   0  0  0  0  0  0  0  0  0  0  0  0
   21.8120   42.3850   -7.4960 H   0  0  0  0  0  0  0  0  0  0  0  0
   19.3370   39.1000   -8.6450 H   0  0  0  0  0  0  0  0  0  0  0  0
   16.5990   39.1080   -8.9010 H   0  0  0  0  0  0  0  0  0  0  0  0
   18.5230   36.1940   -8.9590 H   0  0  0  0  0  0  0  0  0  0  0  0
   19.6590   37.0790   -9.9970 H   0  0  0  0  0  0  0  0  0  0  0  0
   17.9490   37.5510   -9.9460 H   0  0  0  0  0  0  0  0  0  0  0  0
   20.8710   43.2090   -3.1060 H   0  0  0  0  0  0  0  0  0  0  0  0
   21.8980   41.7960   -3.4810 H   0  0  0  0  0  0  0  0  0  0  0  0
   22.4750   43.0500   -2.3680 H   0  0  0  0  0  0  0  0  0  0  0  0
   10.3440   37.3010  -11.5430 H   0  0  0  0  0  0  0  0  0  0  0  0
    9.9880   36.3630  -13.0000 H   0  0  0  0  0  0  0  0  0  0  0  0
    9.5110   38.0650  -12.9050 H   0  0  0  0  0  0  0  0  0  0  0  0
   12.9140   36.6100  -11.9110 H   0  0  0  0  0  0  0  0  0  0  0  0
   13.6460   36.9190  -13.4930 H   0  0  0  0  0  0  0  0  0  0  0  0
   12.3690   35.7070  -13.3330 H   0  0  0  0  0  0  0  0  0  0  0  0
   13.3260   41.8680   -9.3390 H   0  0  0  0  0  0  0  0  0  0  0  0
   12.1250   40.6380   -8.9170 H   0  0  0  0  0  0  0  0  0  0  0  0
   23.5380   43.2800   -4.5920 H   0  0  0  0  0  0  0  0  0  0  0  0
   22.5260   44.6950   -4.2140 H   0  0  0  0  0  0  0  0  0  0  0  0
   14.7590   41.2540   -7.4920 H   0  0  0  0  0  0  0  0  0  0  0  0
   13.4990   40.0790   -7.0050 H   0  0  0  0  0  0  0  0  0  0  0  0
   11.4920   37.7950  -14.3410 H   0  0  0  0  0  0  0  0  0  0  0  0
   15.7080   39.4660   -6.0170 H   0  0  0  0  0  0  0  0  0  0  0  0
   17.4960   41.0640   -6.8100 H   0  0  0  0  0  0  0  0  0  0  0  0
   13.8230   38.9760   -9.1010 H   0  0  0  0  0  0  0  0  0  0  0  0
   14.9440   40.0850   -9.5600 H   0  0  0  0  0  0  0  0  0  0  0  0
   14.1650   37.9150   -6.6240 H   0  0  0  0  0  0  0  0  0  0  0  0
  1  3  2  0  0  0  0
  1  4  1  0  0  0  0
  1 38  1  0  0  0  0
  4 10  2  0  0  0  0
 10 14  1  0  0  0  0
  7 10  1  0  0  0  0
 11 27  1  0  0  0  0
  5 11  2  0  0  0  0
  8 11  1  0  0  0  0
 12 30  1  0  0  0  0
  6 12  1  0  0  0  0
  8 12  2  0  0  0  0
 13 32  1  0  0  0  0
 13 35  2  0  0  0  0
  9 13  1  0  0  0  0
 14 33  1  0  0  0  0
 14 36  2  0  0  0  0
 15 46  1  0  0  0  0
 15 47  1  0  0  0  0
 15 16  1  0  0  0  0
 15 17  1  0  0  0  0
 16 48  1  0  0  0  0
 16 18  1  0  0  0  0
 16 49  1  0  0  0  0
 17 20  1  0  0  0  0
 17 50  1  0  0  0  0
 17 51  1  0  0  0  0
 18 21  1  0  0  0  0
 18 52  1  0  0  0  0
 18 53  1  0  0  0  0
 19 21  1  0  0  0  0
 19 22  1  0  0  0  0
 19 54  1  0  0  0  0
 19 55  1  0  0  0  0
  2  5  1  0  0  0  0
  2  6  2  0  0  0  0
  2 39  1  0  0  0  0
 20 33  1  0  0  0  0
 20 56  1  0  0  0  0
 20 57  1  0  0  0  0
 21 23  1  0  0  0  0
 21 58  1  0  0  0  0
 22 31  1  0  0  0  0
 22 32  1  0  0  0  0
 22 59  1  0  0  0  0
 23 61  1  0  0  0  0
 23 62  1  0  0  0  0
 23 60  1  0  0  0  0
 24 28  1  0  0  0  0
 24 63  1  0  0  0  0
 24 64  1  0  0  0  0
 24 65  1  0  0  0  0
 25 67  1  0  0  0  0
 25 68  1  0  0  0  0
 25 30  1  0  0  0  0
 25 66  1  0  0  0  0
 26 69  1  0  0  0  0
 26 70  1  0  0  0  0
 26 71  1  0  0  0  0
 26 30  1  0  0  0  0
 27 72  1  0  0  0  0
 27 73  1  0  0  0  0
 27 34  1  0  0  0  0
 28 74  1  0  0  0  0
 28 75  1  0  0  0  0
 28 33  1  0  0  0  0
 29 76  1  0  0  0  0
 29 77  1  0  0  0  0
 29 31  1  0  0  0  0
 29 34  1  0  0  0  0
  3  9  1  0  0  0  0
  3 40  1  0  0  0  0
 30 78  1  0  0  0  0
 31 37  1  0  0  0  0
 31 79  1  0  0  0  0
  4 41  1  0  0  0  0
  5 42  1  0  0  0  0
  6 43  1  0  0  0  0
  7 44  1  0  0  0  0
  7  9  2  0  0  0  0
  8 45  1  0  0  0  0
 32 80  1  0  0  0  0
 34 81  1  0  0  0  0
 34 82  1  0  0  0  0
 37 83  1  0  0  0  0
M  CHG  1  34   1
M  END
