REMARK ENERGY -60.88
  -OEChem-10041812273D

 87 88  0     1  0  0  0  0  0999 V2000
   20.7880   42.7420   -7.5570 C   0  0  0  0  0  0  0  0  0  0  0  0
   19.0010   44.2130   -8.3020 C   0  0  0  0  0  0  0  0  0  0  0  0
   20.8320   45.0920   -6.9770 C   0  0  0  0  0  0  0  0  0  0  0  0
   19.5740   42.9450   -8.2260 C   0  0  0  0  0  0  0  0  0  0  0  0
   21.4000   43.8140   -6.9090 C   0  0  0  0  0  0  0  0  0  0  0  0
   19.6350   45.2860   -7.6740 C   0  0  0  0  0  0  0  0  0  0  0  0
   18.8990   41.7960   -8.8600 C   0  0  0  0  0  0  0  0  0  0  0  0
   22.7040   43.6500   -6.2380 C   0  0  0  0  0  0  0  0  0  0  0  0
   13.9440   40.6440   -7.7350 C   0  0  0  0  0  0  0  0  0  0  0  0
   20.5350   39.7310   -4.5780 C   0  0  0  0  0  0  0  0  0  0  0  0
   20.5560   38.2140   -4.7920 C   0  0  0  0  0  0  0  0  0  0  0  0
   21.8560   40.4430   -4.8690 C   0  0  0  0  0  0  0  0  0  0  0  0
   20.9770   37.7000   -6.1770 C   0  0  0  0  0  0  0  0  0  0  0  0
   18.8130   38.3780   -7.4170 C   0  0  0  0  0  0  0  0  0  0  0  0
   21.7390   41.9480   -4.5880 C   0  0  0  0  0  0  0  0  0  0  0  0
   20.3590   38.3990   -7.4070 C   0  0  2  0  0  0  0  0  0  0  0  0
   18.1990   39.4310   -8.3670 C   0  0  1  0  0  0  0  0  0  0  0  0
   20.9200   37.7630   -8.6850 C   0  0  0  0  0  0  0  0  0  0  0  0
   11.9090   39.4840  -12.4520 C   0  0  0  0  0  0  0  0  0  0  0  0
   24.3470   43.4770   -3.4350 C   0  0  0  0  0  0  0  0  0  0  0  0
   17.2040   47.8980   -7.2040 C   0  0  0  0  0  0  0  0  0  0  0  0
   14.0810   39.7420   -5.4260 C   0  0  0  0  0  0  0  0  0  0  0  0
   11.7240   39.6360  -10.9500 C   0  0  0  0  0  0  0  0  0  0  0  0
   12.1180   41.0380  -10.4780 C   0  0  0  0  0  0  0  0  0  0  0  0
   16.0830   39.5260   -6.9330 C   0  0  0  0  0  0  0  0  0  0  0  0
   24.1530   42.5430   -4.5800 C   0  0  0  0  0  0  0  0  0  0  0  0
   11.8860   41.2390   -8.9840 C   0  0  0  0  0  0  0  0  0  0  0  0
   17.6750   46.6200   -7.8640 C   0  0  0  0  0  0  0  0  0  0  0  0
   14.5470   39.5380   -6.8700 C   0  0  2  0  0  0  0  0  0  0  0  0
   16.6740   39.3660   -8.3390 C   0  0  2  0  0  0  0  0  0  0  0  0
   18.6480   40.7640   -7.9760 N   0  0  0  0  0  0  0  0  0  0  0  0
   22.8380   42.7230   -5.1900 N   0  0  0  0  0  0  0  0  0  0  0  0
   12.6670   40.3300   -8.1790 N   0  0  0  0  0  0  0  0  0  0  0  0
   18.6340   41.8250  -10.0550 O   0  0  0  0  0  0  0  0  0  0  0  0
   23.6140   44.3660   -6.6590 O   0  0  0  0  0  0  0  0  0  0  0  0
   14.5280   41.6980   -7.9730 O   0  0  0  0  0  0  0  0  0  0  0  0
   16.2700   38.0860   -8.8280 O   0  0  0  0  0  0  0  0  0  0  0  0
   19.0950   46.5340   -7.7500 O   0  0  0  0  0  0  0  0  0  0  0  0
   21.2770   41.7750   -7.5610 H   0  0  0  0  0  0  0  0  0  0  0  0
   18.0760   44.3800   -8.8390 H   0  0  0  0  0  0  0  0  0  0  0  0
   21.3240   45.9400   -6.5030 H   0  0  0  0  0  0  0  0  0  0  0  0
   19.7520   40.1570   -5.2270 H   0  0  0  0  0  0  0  0  0  0  0  0
   20.2100   39.9530   -3.5490 H   0  0  0  0  0  0  0  0  0  0  0  0
   21.2120   37.7650   -4.0280 H   0  0  0  0  0  0  0  0  0  0  0  0
   19.5500   37.8140   -4.5740 H   0  0  0  0  0  0  0  0  0  0  0  0
   22.6590   40.0210   -4.2620 H   0  0  0  0  0  0  0  0  0  0  0  0
   22.1330   40.2800   -5.9140 H   0  0  0  0  0  0  0  0  0  0  0  0
   22.0790   37.7560   -6.2450 H   0  0  0  0  0  0  0  0  0  0  0  0
   20.7480   36.6200   -6.2230 H   0  0  0  0  0  0  0  0  0  0  0  0
   18.4600   37.3820   -7.6950 H   0  0  0  0  0  0  0  0  0  0  0  0
   18.4470   38.5790   -6.4060 H   0  0  0  0  0  0  0  0  0  0  0  0
   20.7970   42.3330   -4.9960 H   0  0  0  0  0  0  0  0  0  0  0  0
   21.7010   42.1270   -3.5090 H   0  0  0  0  0  0  0  0  0  0  0  0
   20.7010   39.4430   -7.4000 H   0  0  0  0  0  0  0  0  0  0  0  0
   18.5290   39.2320   -9.3960 H   0  0  0  0  0  0  0  0  0  0  0  0
   20.6110   36.7210   -8.7420 H   0  0  0  0  0  0  0  0  0  0  0  0
   22.0070   37.8150   -8.6730 H   0  0  0  0  0  0  0  0  0  0  0  0
   20.5450   38.2970   -9.5550 H   0  0  0  0  0  0  0  0  0  0  0  0
   12.9470   39.6760  -12.7410 H   0  0  0  0  0  0  0  0  0  0  0  0
   11.6510   38.4670  -12.7640 H   0  0  0  0  0  0  0  0  0  0  0  0
   11.2650   40.1810  -12.9990 H   0  0  0  0  0  0  0  0  0  0  0  0
   24.2750   44.5200   -3.7640 H   0  0  0  0  0  0  0  0  0  0  0  0
   23.6040   43.2940   -2.6520 H   0  0  0  0  0  0  0  0  0  0  0  0
   25.3430   43.3280   -3.0000 H   0  0  0  0  0  0  0  0  0  0  0  0
   17.4700   47.9110   -6.1430 H   0  0  0  0  0  0  0  0  0  0  0  0
   17.6510   48.7720   -7.6900 H   0  0  0  0  0  0  0  0  0  0  0  0
   16.1180   48.0030   -7.2980 H   0  0  0  0  0  0  0  0  0  0  0  0
   14.4380   40.6980   -5.0260 H   0  0  0  0  0  0  0  0  0  0  0  0
   12.9880   39.7430   -5.3640 H   0  0  0  0  0  0  0  0  0  0  0  0
   14.4610   38.9510   -4.7710 H   0  0  0  0  0  0  0  0  0  0  0  0
   10.6770   39.4370  -10.6950 H   0  0  0  0  0  0  0  0  0  0  0  0
   12.3320   38.8800  -10.4400 H   0  0  0  0  0  0  0  0  0  0  0  0
   13.1710   41.2250  -10.7190 H   0  0  0  0  0  0  0  0  0  0  0  0
   11.5240   41.7800  -11.0260 H   0  0  0  0  0  0  0  0  0  0  0  0
   16.4690   38.7160   -6.2970 H   0  0  0  0  0  0  0  0  0  0  0  0
   16.4840   40.4480   -6.4910 H   0  0  0  0  0  0  0  0  0  0  0  0
   24.2260   41.5050   -4.2450 H   0  0  0  0  0  0  0  0  0  0  0  0
   24.9050   42.7180   -5.3550 H   0  0  0  0  0  0  0  0  0  0  0  0
   10.8330   41.0990   -8.7220 H   0  0  0  0  0  0  0  0  0  0  0  0
   12.1770   42.2540   -8.6940 H   0  0  0  0  0  0  0  0  0  0  0  0
   17.4060   46.6140   -8.9240 H   0  0  0  0  0  0  0  0  0  0  0  0
   17.2290   45.7490   -7.3760 H   0  0  0  0  0  0  0  0  0  0  0  0
   14.1610   38.5700   -7.2130 H   0  0  0  0  0  0  0  0  0  0  0  0
   16.2610   40.1190   -9.0180 H   0  0  0  0  0  0  0  0  0  0  0  0
   18.7860   40.9480   -6.9750 H   0  0  0  0  0  0  0  0  0  0  0  0
   12.2670   39.4310   -7.9290 H   0  0  0  0  0  0  0  0  0  0  0  0
   16.6120   38.0190   -9.7320 H   0  0  0  0  0  0  0  0  0  0  0  0
  1  4  2  0  0  0  0
  1  5  1  0  0  0  0
  1 39  1  0  0  0  0
 10 11  1  0  0  0  0
 10 12  1  0  0  0  0
 10 42  1  0  0  0  0
 10 43  1  0  0  0  0
 11 13  1  0  0  0  0
 11 44  1  0  0  0  0
 11 45  1  0  0  0  0
 12 15  1  0  0  0  0
 12 46  1  0  0  0  0
 12 47  1  0  0  0  0
 13 16  1  0  0  0  0
 13 48  1  0  0  0  0
 13 49  1  0  0  0  0
 14 16  1  0  0  0  0
 14 17  1  0  0  0  0
 14 50  1  0  0  0  0
 14 51  1  0  0  0  0
 15 52  1  0  0  0  0
 15 53  1  0  0  0  0
 15 32  1  0  0  0  0
 16 18  1  0  0  0  0
 16 54  1  0  0  0  0
 17 55  1  0  0  0  0
 17 31  1  0  0  0  0
 17 30  1  0  0  0  0
 18 56  1  0  0  0  0
 18 57  1  0  0  0  0
 18 58  1  0  0  0  0
 19 59  1  0  0  0  0
 19 60  1  0  0  0  0
 19 61  1  0  0  0  0
 19 23  1  0  0  0  0
  2  4  1  0  0  0  0
  2  6  2  0  0  0  0
  2 40  1  0  0  0  0
 20 62  1  0  0  0  0
 20 63  1  0  0  0  0
 20 64  1  0  0  0  0
 20 26  1  0  0  0  0
 21 66  1  0  0  0  0
 21 67  1  0  0  0  0
 21 65  1  0  0  0  0
 21 28  1  0  0  0  0
 22 68  1  0  0  0  0
 22 69  1  0  0  0  0
 22 70  1  0  0  0  0
 22 29  1  0  0  0  0
 23 71  1  0  0  0  0
 23 72  1  0  0  0  0
 23 24  1  0  0  0  0
 24 73  1  0  0  0  0
 24 74  1  0  0  0  0
 24 27  1  0  0  0  0
 25 75  1  0  0  0  0
 25 76  1  0  0  0  0
 25 29  1  0  0  0  0
 25 30  1  0  0  0  0
 26 32  1  0  0  0  0
 26 77  1  0  0  0  0
 26 78  1  0  0  0  0
 27 33  1  0  0  0  0
 27 79  1  0  0  0  0
 27 80  1  0  0  0  0
 28 38  1  0  0  0  0
 28 81  1  0  0  0  0
 28 82  1  0  0  0  0
 29 83  1  0  0  0  0
  9 29  1  0  0  0  0
  3  5  2  0  0  0  0
  3  6  1  0  0  0  0
  3 41  1  0  0  0  0
 30 37  1  0  0  0  0
 30 84  1  0  0  0  0
  4  7  1  0  0  0  0
  5  8  1  0  0  0  0
  6 38  1  0  0  0  0
  7 31  1  0  0  0  0
  7 34  2  0  0  0  0
  8 32  1  0  0  0  0
  8 35  2  0  0  0  0
  9 33  1  0  0  0  0
  9 36  2  0  0  0  0
 31 85  1  0  0  0  0
 33 86  1  0  0  0  0
 37 87  1  0  0  0  0
M  END
