REMARK ENERGY -62.44
  -OEChem-10041812273D

 87 88  0     1  0  0  0  0  0999 V2000
   20.4290   42.8600   -7.4960 C   0  0  0  0  0  0  0  0  0  0  0  0
   18.6220   44.2600   -8.3250 C   0  0  0  0  0  0  0  0  0  0  0  0
   20.4200   45.2350   -7.0220 C   0  0  0  0  0  0  0  0  0  0  0  0
   19.2190   43.0090   -8.1860 C   0  0  0  0  0  0  0  0  0  0  0  0
   21.0120   43.9750   -6.8910 C   0  0  0  0  0  0  0  0  0  0  0  0
   19.2270   45.3730   -7.7380 C   0  0  0  0  0  0  0  0  0  0  0  0
   18.5750   41.8190   -8.7740 C   0  0  0  0  0  0  0  0  0  0  0  0
   22.3130   43.8670   -6.2000 C   0  0  0  0  0  0  0  0  0  0  0  0
   13.6320   40.6140   -7.6470 C   0  0  0  0  0  0  0  0  0  0  0  0
   20.2050   39.9820   -4.3870 C   0  0  0  0  0  0  0  0  0  0  0  0
   20.2600   38.4580   -4.5330 C   0  0  0  0  0  0  0  0  0  0  0  0
   21.5160   40.7080   -4.6970 C   0  0  0  0  0  0  0  0  0  0  0  0
   20.7060   37.8920   -5.8890 C   0  0  0  0  0  0  0  0  0  0  0  0
   18.5420   38.4680   -7.1800 C   0  0  0  0  0  0  0  0  0  0  0  0
   21.3650   42.2210   -4.4840 C   0  0  0  0  0  0  0  0  0  0  0  0
   20.0890   38.5210   -7.1540 C   0  0  2  0  0  0  0  0  0  0  0  0
   17.9170   39.4650   -8.1820 C   0  0  1  0  0  0  0  0  0  0  0  0
   20.6760   37.8410   -8.3970 C   0  0  0  0  0  0  0  0  0  0  0  0
   11.6730   39.2030  -12.3280 C   0  0  0  0  0  0  0  0  0  0  0  0
   23.9280   43.8550   -3.3760 C   0  0  0  0  0  0  0  0  0  0  0  0
   16.7380   47.9530   -7.4110 C   0  0  0  0  0  0  0  0  0  0  0  0
   13.7630   39.8200   -5.2990 C   0  0  0  0  0  0  0  0  0  0  0  0
   11.4690   39.4180  -10.8360 C   0  0  0  0  0  0  0  0  0  0  0  0
   11.8280   40.8470  -10.4240 C   0  0  0  0  0  0  0  0  0  0  0  0
   15.7850   39.5780   -6.7750 C   0  0  0  0  0  0  0  0  0  0  0  0
   23.7650   42.8670   -4.4800 C   0  0  0  0  0  0  0  0  0  0  0  0
   11.5770   41.1100   -8.9430 C   0  0  0  0  0  0  0  0  0  0  0  0
   17.2420   46.6560   -8.0080 C   0  0  0  0  0  0  0  0  0  0  0  0
   14.2490   39.5610   -6.7280 C   0  0  2  0  0  0  0  0  0  0  0  0
   16.3940   39.3690   -8.1660 C   0  0  2  0  0  0  0  0  0  0  0  0
   18.3350   40.8230   -7.8480 N   0  0  0  0  0  0  0  0  0  0  0  0
   22.4530   42.9910   -5.1100 N   0  0  0  0  0  0  0  0  0  0  0  0
   12.3670   40.2560   -8.0900 N   0  0  0  0  0  0  0  0  0  0  0  0
   18.3220   41.7890   -9.9710 O   0  0  0  0  0  0  0  0  0  0  0  0
   23.2120   44.5830   -6.6440 O   0  0  0  0  0  0  0  0  0  0  0  0
   14.1980   41.6690   -7.9280 O   0  0  0  0  0  0  0  0  0  0  0  0
   16.0220   38.0600   -8.6010 O   0  0  0  0  0  0  0  0  0  0  0  0
   18.6610   46.6040   -7.8750 O   0  0  0  0  0  0  0  0  0  0  0  0
   20.9380   41.9060   -7.4520 H   0  0  0  0  0  0  0  0  0  0  0  0
   17.6990   44.3840   -8.8770 H   0  0  0  0  0  0  0  0  0  0  0  0
   20.8890   46.1140   -6.5820 H   0  0  0  0  0  0  0  0  0  0  0  0
   19.4220   40.3630   -5.0630 H   0  0  0  0  0  0  0  0  0  0  0  0
   19.8650   40.2440   -3.3720 H   0  0  0  0  0  0  0  0  0  0  0  0
   20.9170   38.0580   -3.7420 H   0  0  0  0  0  0  0  0  0  0  0  0
   19.2610   38.0470   -4.3060 H   0  0  0  0  0  0  0  0  0  0  0  0
   22.3200   40.3300   -4.0650 H   0  0  0  0  0  0  0  0  0  0  0  0
   21.8070   40.5050   -5.7310 H   0  0  0  0  0  0  0  0  0  0  0  0
   21.8080   37.9680   -5.9490 H   0  0  0  0  0  0  0  0  0  0  0  0
   20.5000   36.8060   -5.8890 H   0  0  0  0  0  0  0  0  0  0  0  0
   18.2140   37.4530   -7.4160 H   0  0  0  0  0  0  0  0  0  0  0  0
   18.1610   38.7070   -6.1830 H   0  0  0  0  0  0  0  0  0  0  0  0
   20.4190   42.5680   -4.9190 H   0  0  0  0  0  0  0  0  0  0  0  0
   21.3110   42.4470   -3.4160 H   0  0  0  0  0  0  0  0  0  0  0  0
   20.4080   39.5730   -7.1920 H   0  0  0  0  0  0  0  0  0  0  0  0
   18.2630   39.2260   -9.1980 H   0  0  0  0  0  0  0  0  0  0  0  0
   20.3890   36.7920   -8.4110 H   0  0  0  0  0  0  0  0  0  0  0  0
   21.7620   37.9160   -8.3760 H   0  0  0  0  0  0  0  0  0  0  0  0
   20.2990   38.3270   -9.2940 H   0  0  0  0  0  0  0  0  0  0  0  0
   12.7100   39.4030  -12.6150 H   0  0  0  0  0  0  0  0  0  0  0  0
   11.4400   38.1680  -12.5970 H   0  0  0  0  0  0  0  0  0  0  0  0
   11.0210   39.8600  -12.9120 H   0  0  0  0  0  0  0  0  0  0  0  0
   23.8380   44.8790   -3.7520 H   0  0  0  0  0  0  0  0  0  0  0  0
   23.1800   43.6910   -2.5920 H   0  0  0  0  0  0  0  0  0  0  0  0
   24.9210   43.7470   -2.9250 H   0  0  0  0  0  0  0  0  0  0  0  0
   16.9910   48.0180   -6.3490 H   0  0  0  0  0  0  0  0  0  0  0  0
   17.1720   48.8120   -7.9330 H   0  0  0  0  0  0  0  0  0  0  0  0
   15.6510   48.0300   -7.5200 H   0  0  0  0  0  0  0  0  0  0  0  0
   14.0960   40.8000   -4.9390 H   0  0  0  0  0  0  0  0  0  0  0  0
   12.6700   39.8010   -5.2490 H   0  0  0  0  0  0  0  0  0  0  0  0
   14.1520   39.0670   -4.6060 H   0  0  0  0  0  0  0  0  0  0  0  0
   10.4230   39.2090  -10.5830 H   0  0  0  0  0  0  0  0  0  0  0  0
   12.0860   38.6980  -10.2870 H   0  0  0  0  0  0  0  0  0  0  0  0
   12.8800   41.0460  -10.6630 H   0  0  0  0  0  0  0  0  0  0  0  0
   11.2250   41.5520  -11.0100 H   0  0  0  0  0  0  0  0  0  0  0  0
   16.1800   38.8070   -6.1000 H   0  0  0  0  0  0  0  0  0  0  0  0
   16.1620   40.5280   -6.3710 H   0  0  0  0  0  0  0  0  0  0  0  0
   23.8550   41.8460   -4.0970 H   0  0  0  0  0  0  0  0  0  0  0  0
   24.5220   43.0220   -5.2550 H   0  0  0  0  0  0  0  0  0  0  0  0
   10.5230   40.9600   -8.6850 H   0  0  0  0  0  0  0  0  0  0  0  0
   11.8440   42.1430   -8.6960 H   0  0  0  0  0  0  0  0  0  0  0  0
   16.9840   46.5970   -9.0690 H   0  0  0  0  0  0  0  0  0  0  0  0
   16.8080   45.7980   -7.4860 H   0  0  0  0  0  0  0  0  0  0  0  0
   13.8860   38.5710   -7.0310 H   0  0  0  0  0  0  0  0  0  0  0  0
   15.9740   40.0810   -8.8820 H   0  0  0  0  0  0  0  0  0  0  0  0
   18.4580   41.0530   -6.8550 H   0  0  0  0  0  0  0  0  0  0  0  0
   11.9840   39.3600   -7.8030 H   0  0  0  0  0  0  0  0  0  0  0  0
   16.3750   37.9590   -9.4980 H   0  0  0  0  0  0  0  0  0  0  0  0
  1  4  2  0  0  0  0
  1  5  1  0  0  0  0
  1 39  1  0  0  0  0
 10 11  1  0  0  0  0
 10 12  1  0  0  0  0
 10 42  1  0  0  0  0
 10 43  1  0  0  0  0
 11 13  1  0  0  0  0
 11 44  1  0  0  0  0
 11 45  1  0  0  0  0
 12 15  1  0  0  0  0
 12 46  1  0  0  0  0
 12 47  1  0  0  0  0
 13 16  1  0  0  0  0
 13 48  1  0  0  0  0
 13 49  1  0  0  0  0
 14 16  1  0  0  0  0
 14 17  1  0  0  0  0
 14 50  1  0  0  0  0
 14 51  1  0  0  0  0
 15 32  1  0  0  0  0
 15 52  1  0  0  0  0
 15 53  1  0  0  0  0
 16 18  1  0  0  0  0
 16 54  1  0  0  0  0
 17 30  1  0  0  0  0
 17 31  1  0  0  0  0
 17 55  1  0  0  0  0
 18 56  1  0  0  0  0
 18 57  1  0  0  0  0
 18 58  1  0  0  0  0
 19 23  1  0  0  0  0
 19 59  1  0  0  0  0
 19 60  1  0  0  0  0
 19 61  1  0  0  0  0
  2  4  1  0  0  0  0
  2  6  2  0  0  0  0
  2 40  1  0  0  0  0
 20 26  1  0  0  0  0
 20 62  1  0  0  0  0
 20 63  1  0  0  0  0
 20 64  1  0  0  0  0
 21 28  1  0  0  0  0
 21 65  1  0  0  0  0
 21 66  1  0  0  0  0
 21 67  1  0  0  0  0
 22 29  1  0  0  0  0
 22 68  1  0  0  0  0
 22 69  1  0  0  0  0
 22 70  1  0  0  0  0
 23 24  1  0  0  0  0
 23 71  1  0  0  0  0
 23 72  1  0  0  0  0
 24 27  1  0  0  0  0
 24 73  1  0  0  0  0
 24 74  1  0  0  0  0
 25 29  1  0  0  0  0
 25 30  1  0  0  0  0
 25 75  1  0  0  0  0
 25 76  1  0  0  0  0
 26 32  1  0  0  0  0
 26 77  1  0  0  0  0
 26 78  1  0  0  0  0
 27 33  1  0  0  0  0
 27 79  1  0  0  0  0
 27 80  1  0  0  0  0
 28 38  1  0  0  0  0
 28 81  1  0  0  0  0
 28 82  1  0  0  0  0
  9 29  1  0  0  0  0
 29 83  1  0  0  0  0
  3  5  2  0  0  0  0
  3  6  1  0  0  0  0
  3 41  1  0  0  0  0
 30 37  1  0  0  0  0
 30 84  1  0  0  0  0
  4  7  1  0  0  0  0
  5  8  1  0  0  0  0
  6 38  1  0  0  0  0
  7 31  1  0  0  0  0
  7 34  2  0  0  0  0
  8 32  1  0  0  0  0
  8 35  2  0  0  0  0
  9 33  1  0  0  0  0
  9 36  2  0  0  0  0
 31 85  1  0  0  0  0
 33 86  1  0  0  0  0
 37 87  1  0  0  0  0
M  END
